!- Windows Line endings 

Version,
    9.5;                      !- Version Identifier

SimulationControl,
    Yes,                      !- Do Zone Sizing Calculation
    Yes,                      !- Do System Sizing Calculation
    Yes,                      !- Do Plant Sizing Calculation
    No,                       !- Run Simulation for Sizing Periods
    Yes,                      !- Run Simulation for Weather File Run Periods
    No,                       !- Do HVAC Sizing Simulation for Sizing Periods
    1;                        !- Maximum Number of HVAC Sizing Simulation Passes

Building,
    -MediumOffice-ASHRAE 169-2013-2B created: 2021-10-06 16:02:52 +0300,    !- Name
    0,                        !- North Axis
    City,                     !- Terrain
    0.04,                     !- Loads Convergence Tolerance Value
    0.2,                      !- Temperature Convergence Tolerance Value
    FullInteriorAndExterior,    !- Solar Distribution
    25,                       !- Maximum Number of Warmup Days
    6;                        !- Minimum Number of Warmup Days

ShadowCalculation,
    PolygonClipping,          !- Shading Calculation Method
    Periodic,                 !- Shading Calculation Update Frequency Method
    7,                        !- Shading Calculation Update Frequency
    15000,                    !- Maximum Figures in Shadow Overlap Calculations
    SutherlandHodgman,        !- Polygon Clipping Algorithm
    512,                      !- Pixel Counting Resolution
    SimpleSkyDiffuseModeling,    !- Sky Diffuse Modeling Algorithm
    No,                       !- Output External Shading Calculation Results
    No,                       !- Disable SelfShading Within Shading Zone Groups
    No;                       !- Disable SelfShading From Shading Zone Groups to Other Zones

SurfaceConvectionAlgorithm:Inside,
    TARP;                     !- Algorithm

SurfaceConvectionAlgorithm:Outside,
    TARP;                     !- Algorithm

HeatBalanceAlgorithm,
    ConductionTransferFunction,    !- Algorithm
    200;                      !- Surface Temperature Upper Limit

ZoneAirHeatBalanceAlgorithm,
    ThirdOrderBackwardDifference;    !- Algorithm

ZoneAirContaminantBalance,
    No;                       !- Carbon Dioxide Concentration

ZoneCapacitanceMultiplier:ResearchSpecial,
    Zone Capacitance Multiplier Research Special,    !- Name
    ,                         !- Zone or ZoneList Name
    ,                         !- Temperature Capacity Multiplier
    ,                         !- Humidity Capacity Multiplier
    ,                         !- Carbon Dioxide Capacity Multiplier
    ;                         !- Generic Contaminant Capacity Multiplier

Timestep,
    6;                        !- Number of Timesteps per Hour

ConvergenceLimits,
    1,                        !- Minimum System Timestep
    20;                       !- Maximum HVAC Iterations

Site:Location,
    Tucson-Davis Monthan AFB_AZ_USA,    !- Name
    32.17,                    !- Latitude
    -110.88,                  !- Longitude
    -7,                       !- Time Zone
    809;                      !- Elevation

SizingPeriod:DesignDay,
    Tucson-Davis-Monthan.AFB_AZ_USA Ann Clg .4% Condns DB=>MWB,    !- Name
    7,                        !- Month
    21,                       !- Day of Month
    SummerDesignDay,          !- Day Type
    40.8,                     !- Maximum DryBulb Temperature
    13.3,                     !- Daily DryBulb Temperature Range
    DefaultMultipliers,       !- DryBulb Temperature Range Modifier Type
    ,                         !- DryBulb Temperature Range Modifier Day Schedule Name
    Wetbulb,                  !- Humidity Condition Type
    18.5,                     !- Wetbulb or DewPoint at Maximum DryBulb
    ,                         !- Humidity Condition Day Schedule Name
    ,                         !- Humidity Ratio at Maximum DryBulb
    ,                         !- Enthalpy at Maximum DryBulb
    ,                         !- Daily WetBulb Temperature Range
    91976,                    !- Barometric Pressure
    4.8,                      !- Wind Speed
    310,                      !- Wind Direction
    No,                       !- Rain Indicator
    No,                       !- Snow Indicator
    No,                       !- Daylight Saving Time Indicator
    ASHRAETau,                !- Solar Model Indicator
    ,                         !- Beam Solar Day Schedule Name
    ,                         !- Diffuse Solar Day Schedule Name
    0.555,                    !- ASHRAE Clear Sky Optical Depth for Beam Irradiance taub
    1.729;                    !- ASHRAE Clear Sky Optical Depth for Diffuse Irradiance taud

SizingPeriod:DesignDay,
    Tucson-Davis-Monthan.AFB_AZ_USA Ann Htg 99.6% Condns DB,    !- Name
    12,                       !- Month
    21,                       !- Day of Month
    WinterDesignDay,          !- Day Type
    0.5,                      !- Maximum DryBulb Temperature
    0,                        !- Daily DryBulb Temperature Range
    DefaultMultipliers,       !- DryBulb Temperature Range Modifier Type
    ,                         !- DryBulb Temperature Range Modifier Day Schedule Name
    Wetbulb,                  !- Humidity Condition Type
    0.5,                      !- Wetbulb or DewPoint at Maximum DryBulb
    ,                         !- Humidity Condition Day Schedule Name
    ,                         !- Humidity Ratio at Maximum DryBulb
    ,                         !- Enthalpy at Maximum DryBulb
    ,                         !- Daily WetBulb Temperature Range
    91976,                    !- Barometric Pressure
    2.1,                      !- Wind Speed
    140,                      !- Wind Direction
    No,                       !- Rain Indicator
    No,                       !- Snow Indicator
    No,                       !- Daylight Saving Time Indicator
    ASHRAEClearSky,           !- Solar Model Indicator
    ,                         !- Beam Solar Day Schedule Name
    ,                         !- Diffuse Solar Day Schedule Name
    ,                         !- ASHRAE Clear Sky Optical Depth for Beam Irradiance taub
    ,                         !- ASHRAE Clear Sky Optical Depth for Diffuse Irradiance taud
    0;                        !- Sky Clearness

RunPeriod,
    Run Period 1,             !- Name
    10,                       !- Begin Month
    25,                       !- Begin Day of Month
    2021,                     !- Begin Year
    10,                       !- End Month
    25,                       !- End Day of Month
    2021,                     !- End Year
    Monday,                   !- Day of Week for Start Day
    No,                       !- Use Weather File Holidays and Special Days
    No,                       !- Use Weather File Daylight Saving Period
    No,                       !- Apply Weekend Holiday Rule
    Yes,                      !- Use Weather File Rain Indicators
    Yes;                      !- Use Weather File Snow Indicators

RunPeriodControl:DaylightSavingTime,
    2nd Sunday in March,      !- Start Date
    1st Sunday in November;    !- End Date

Site:GroundTemperature:FCfactorMethod,
    20.9,                     !- January Ground Temperature
    15.4,                     !- February Ground Temperature
    11.9,                     !- March Ground Temperature
    14.8,                     !- April Ground Temperature
    12.7,                     !- May Ground Temperature
    15.4,                     !- June Ground Temperature
    23.3,                     !- July Ground Temperature
    26.3,                     !- August Ground Temperature
    31.2,                     !- September Ground Temperature
    30.4,                     !- October Ground Temperature
    29.8,                     !- November Ground Temperature
    27.8;                     !- December Ground Temperature

Site:WaterMainsTemperature,
    Correlation,              !- Calculation Method
    ,                         !- Temperature Schedule Name
    21.6583333333333,         !- Annual Average Outdoor Air Temperature
    19.3;                     !- Maximum Difference In Monthly Average Outdoor Air Temperatures

ScheduleTypeLimits,
    Core_bottom ZN Thermostat Schedule Type Limits,    !- Name
    0,                        !- Lower Limit Value
    4,                        !- Upper Limit Value
    DISCRETE;                 !- Numeric Type

ScheduleTypeLimits,
    Temperature,              !- Name
    ,                         !- Lower Limit Value
    ,                         !- Upper Limit Value
    Continuous,               !- Numeric Type
    temperature;              !- Unit Type

ScheduleTypeLimits,
    Fractional,               !- Name
    0,                        !- Lower Limit Value
    1,                        !- Upper Limit Value
    Continuous;               !- Numeric Type

ScheduleTypeLimits,
    Core_mid ZN Thermostat Schedule Type Limits,    !- Name
    0,                        !- Lower Limit Value
    4,                        !- Upper Limit Value
    DISCRETE;                 !- Numeric Type

ScheduleTypeLimits,
    Core_top ZN Thermostat Schedule Type Limits,    !- Name
    0,                        !- Lower Limit Value
    4,                        !- Upper Limit Value
    DISCRETE;                 !- Numeric Type

ScheduleTypeLimits,
    Perimeter_bot_ZN_1 ZN Thermostat Schedule Type Limits,    !- Name
    0,                        !- Lower Limit Value
    4,                        !- Upper Limit Value
    DISCRETE;                 !- Numeric Type

ScheduleTypeLimits,
    Perimeter_bot_ZN_2 ZN Thermostat Schedule Type Limits,    !- Name
    0,                        !- Lower Limit Value
    4,                        !- Upper Limit Value
    DISCRETE;                 !- Numeric Type

ScheduleTypeLimits,
    Perimeter_bot_ZN_3 ZN Thermostat Schedule Type Limits,    !- Name
    0,                        !- Lower Limit Value
    4,                        !- Upper Limit Value
    DISCRETE;                 !- Numeric Type

ScheduleTypeLimits,
    Perimeter_bot_ZN_4 ZN Thermostat Schedule Type Limits,    !- Name
    0,                        !- Lower Limit Value
    4,                        !- Upper Limit Value
    DISCRETE;                 !- Numeric Type

ScheduleTypeLimits,
    Perimeter_mid_ZN_1 ZN Thermostat Schedule Type Limits,    !- Name
    0,                        !- Lower Limit Value
    4,                        !- Upper Limit Value
    DISCRETE;                 !- Numeric Type

ScheduleTypeLimits,
    Perimeter_mid_ZN_2 ZN Thermostat Schedule Type Limits,    !- Name
    0,                        !- Lower Limit Value
    4,                        !- Upper Limit Value
    DISCRETE;                 !- Numeric Type

ScheduleTypeLimits,
    Perimeter_mid_ZN_3 ZN Thermostat Schedule Type Limits,    !- Name
    0,                        !- Lower Limit Value
    4,                        !- Upper Limit Value
    DISCRETE;                 !- Numeric Type

ScheduleTypeLimits,
    Perimeter_mid_ZN_4 ZN Thermostat Schedule Type Limits,    !- Name
    0,                        !- Lower Limit Value
    4,                        !- Upper Limit Value
    DISCRETE;                 !- Numeric Type

ScheduleTypeLimits,
    Perimeter_top_ZN_1 ZN Thermostat Schedule Type Limits,    !- Name
    0,                        !- Lower Limit Value
    4,                        !- Upper Limit Value
    DISCRETE;                 !- Numeric Type

ScheduleTypeLimits,
    Perimeter_top_ZN_2 ZN Thermostat Schedule Type Limits,    !- Name
    0,                        !- Lower Limit Value
    4,                        !- Upper Limit Value
    DISCRETE;                 !- Numeric Type

ScheduleTypeLimits,
    Perimeter_top_ZN_3 ZN Thermostat Schedule Type Limits,    !- Name
    0,                        !- Lower Limit Value
    4,                        !- Upper Limit Value
    DISCRETE;                 !- Numeric Type

ScheduleTypeLimits,
    Perimeter_top_ZN_4 ZN Thermostat Schedule Type Limits,    !- Name
    0,                        !- Lower Limit Value
    4,                        !- Upper Limit Value
    DISCRETE;                 !- Numeric Type

ScheduleTypeLimits,
    ActivityLevel,            !- Name
    0,                        !- Lower Limit Value
    ,                         !- Upper Limit Value
    Continuous,               !- Numeric Type
    activitylevel;            !- Unit Type

ScheduleTypeLimits,
    Always On Discrete Limits,    !- Name
    0,                        !- Lower Limit Value
    1,                        !- Upper Limit Value
    Discrete,                 !- Numeric Type
    availability;             !- Unit Type

ScheduleTypeLimits,
    Any Number;               !- Name

ScheduleTypeLimits,
    Temperature Schedule Type Limits,    !- Name
    0,                        !- Lower Limit Value
    100,                      !- Upper Limit Value
    Continuous,               !- Numeric Type
    temperature;              !- Unit Type

ScheduleTypeLimits,
    Velocity,                 !- Name
    0,                        !- Lower Limit Value
    ,                         !- Upper Limit Value
    Continuous,               !- Numeric Type
    velocity;                 !- Unit Type

Schedule:Day:Interval,
    OfficeMedium HTGSETP_SCH_YES_OPTIMUM Wkdy Day,    !- Name
    Temperature,              !- Schedule Type Limits Name
    No,                       !- Interpolate to Timestep
    01:00,                    !- Time 1
    16.565673259986838,       !- Value Until Time 1
    02:00,                    !- Time 2
    14.084499117297465,       !- Value Until Time 2
    03:00,                    !- Time 3
    16.779835665295945,       !- Value Until Time 3
    04:00,                    !- Time 4
    16.57511343185092,        !- Value Until Time 4
    05:00,                    !- Time 5
    16.82676081610064,        !- Value Until Time 5
    06:00,                    !- Time 6
    20.740403519610147,       !- Value Until Time 6
    07:00,                    !- Time 7
    19.371580339130844,       !- Value Until Time 7
    08:00,                    !- Time 8
    21.644115378054966,       !- Value Until Time 8
    09:00,                    !- Time 9
    20.77211260968321,        !- Value Until Time 9
    10:00,                    !- Time 10
    17.92534684278915,        !- Value Until Time 10
    11:00,                    !- Time 11
    18.479596843256065,       !- Value Until Time 11
    12:00,                    !- Time 12
    20.249097824287624,       !- Value Until Time 12
    13:00,                    !- Time 13
    18.062126780248054,       !- Value Until Time 13
    14:00,                    !- Time 14
    20.8568249401241,         !- Value Until Time 14
    15:00,                    !- Time 15
    17.722027807947015,       !- Value Until Time 15
    16:00,                    !- Time 16
    19.568534931286823,       !- Value Until Time 16
    17:00,                    !- Time 17
    18.513209473198888,       !- Value Until Time 17
    18:00,                    !- Time 18
    19.81990929866029,        !- Value Until Time 18
    19:00,                    !- Time 19
    17.21638653182616,        !- Value Until Time 19
    20:00,                    !- Time 20
    18.757745924413797,       !- Value Until Time 20
    21:00,                    !- Time 21
    17.785000266861793,       !- Value Until Time 21
    22:00,                    !- Time 22
    17.627258530120535,       !- Value Until Time 22
    23:00,                    !- Time 23
    16.681789983949542,       !- Value Until Time 23
    24:00,                    !- Time 24
    14.011446048025807;       !- Value Until Time 24

Schedule:Day:Interval,
    OfficeMedium HTGSETP_SCH_YES_OPTIMUM Sat Day,    !- Name
    Temperature,              !- Schedule Type Limits Name
    No,                       !- Interpolate to Timestep
    05:00,                    !- Time 1
    15.6,                     !- Value Until Time 1
    06:00,                    !- Time 2
    17.8,                     !- Value Until Time 2
    07:00,                    !- Time 3
    20,                       !- Value Until Time 3
    17:00,                    !- Time 4
    21,                       !- Value Until Time 4
    24:00,                    !- Time 5
    15.6;                     !- Value Until Time 5

Schedule:Day:Interval,
    OfficeMedium HTGSETP_SCH_YES_OPTIMUM Default,    !- Name
    Temperature,              !- Schedule Type Limits Name
    No,                       !- Interpolate to Timestep
    24:00,                    !- Time 1
    15.6;                     !- Value Until Time 1

Schedule:Day:Interval,
    OfficeMedium HTGSETP_SCH_YES_OPTIMUM Summer Design Day,    !- Name
    Temperature,              !- Schedule Type Limits Name
    No,                       !- Interpolate to Timestep
    24:00,                    !- Time 1
    15.6;                     !- Value Until Time 1

Schedule:Day:Interval,
    OfficeMedium HTGSETP_SCH_YES_OPTIMUM Winter Design Day,    !- Name
    Temperature,              !- Schedule Type Limits Name
    No,                       !- Interpolate to Timestep
    05:00,                    !- Time 1
    15.6,                     !- Value Until Time 1
    06:00,                    !- Time 2
    17.6,                     !- Value Until Time 2
    07:00,                    !- Time 3
    19.6,                     !- Value Until Time 3
    22:00,                    !- Time 4
    21,                       !- Value Until Time 4
    24:00,                    !- Time 5
    15.6;                     !- Value Until Time 5

Schedule:Day:Interval,
    OfficeMedium CLGSETP_SCH_YES_OPTIMUM Wkdy Day,    !- Name
    Temperature,              !- Schedule Type Limits Name
    No,                       !- Interpolate to Timestep
    01:00,                    !- Time 1
    27.574191026279504,       !- Value Until Time 1
    02:00,                    !- Time 2
    27.35504185039439,        !- Value Until Time 2
    03:00,                    !- Time 3
    28.880689413157846,       !- Value Until Time 3
    04:00,                    !- Time 4
    29.839191723851417,       !- Value Until Time 4
    05:00,                    !- Time 5
    28.085248707215474,       !- Value Until Time 5
    06:00,                    !- Time 6
    24.65863199202311,        !- Value Until Time 6
    07:00,                    !- Time 7
    25.951746819748987,       !- Value Until Time 7
    08:00,                    !- Time 8
    26.92803273226241,        !- Value Until Time 8
    09:00,                    !- Time 9
    22.077513590857592,       !- Value Until Time 9
    10:00,                    !- Time 10
    26.196545152211385,       !- Value Until Time 10
    11:00,                    !- Time 11
    25.95127151872687,        !- Value Until Time 11
    12:00,                    !- Time 12
    23.353666904244808,       !- Value Until Time 12
    13:00,                    !- Time 13
    24.810359466830935,       !- Value Until Time 13
    14:00,                    !- Time 14
    23.36049180465751,        !- Value Until Time 14
    15:00,                    !- Time 15
    24.07400228533739,        !- Value Until Time 15
    16:00,                    !- Time 16
    23.771706254376532,       !- Value Until Time 16
    17:00,                    !- Time 17
    23.619435673052024,       !- Value Until Time 17
    18:00,                    !- Time 18
    22.659194438550912,       !- Value Until Time 18
    19:00,                    !- Time 19
    23.327794069853876,       !- Value Until Time 19
    20:00,                    !- Time 20
    23.90542157848568,        !- Value Until Time 20
    21:00,                    !- Time 21
    25.377303601824007,       !- Value Until Time 21
    22:00,                    !- Time 22
    22.12623633928758,        !- Value Until Time 22
    23:00,                    !- Time 23
    27.72010308416813,        !- Value Until Time 23
    24:00,                    !- Time 24
    27.01072560688712;        !- Value Until Time 24

Schedule:Day:Interval,
    OfficeMedium CLGSETP_SCH_YES_OPTIMUM Sat Day,    !- Name
    Temperature,              !- Schedule Type Limits Name
    No,                       !- Interpolate to Timestep
    05:00,                    !- Time 1
    26.7,                     !- Value Until Time 1
    06:00,                    !- Time 2
    25.7,                     !- Value Until Time 2
    07:00,                    !- Time 3
    25,                       !- Value Until Time 3
    17:00,                    !- Time 4
    24,                       !- Value Until Time 4
    24:00,                    !- Time 5
    26.7;                     !- Value Until Time 5

Schedule:Day:Interval,
    OfficeMedium CLGSETP_SCH_YES_OPTIMUM Default,    !- Name
    Temperature,              !- Schedule Type Limits Name
    No,                       !- Interpolate to Timestep
    24:00,                    !- Time 1
    26.7;                     !- Value Until Time 1

Schedule:Day:Interval,
    OfficeMedium CLGSETP_SCH_YES_OPTIMUM Summer Design Day,    !- Name
    Temperature,              !- Schedule Type Limits Name
    No,                       !- Interpolate to Timestep
    05:00,                    !- Time 1
    26.7,                     !- Value Until Time 1
    06:00,                    !- Time 2
    25.7,                     !- Value Until Time 2
    07:00,                    !- Time 3
    25,                       !- Value Until Time 3
    22:00,                    !- Time 4
    24,                       !- Value Until Time 4
    24:00,                    !- Time 5
    26.7;                     !- Value Until Time 5

Schedule:Day:Interval,
    OfficeMedium CLGSETP_SCH_YES_OPTIMUM Winter Design Day,    !- Name
    Temperature,              !- Schedule Type Limits Name
    No,                       !- Interpolate to Timestep
    24:00,                    !- Time 1
    26.7;                     !- Value Until Time 1

Schedule:Day:Interval,
    OfficeMedium MinOA_MotorizedDamper_Sched SmrDsn|Wkdy Day,    !- Name
    Fractional,               !- Schedule Type Limits Name
    No,                       !- Interpolate to Timestep
    07:00,                    !- Time 1
    0,                        !- Value Until Time 1
    22:00,                    !- Time 2
    1,                        !- Value Until Time 2
    24:00,                    !- Time 3
    0;                        !- Value Until Time 3

Schedule:Day:Interval,
    OfficeMedium MinOA_MotorizedDamper_Sched WntrDsn|Sat Day,    !- Name
    Fractional,               !- Schedule Type Limits Name
    No,                       !- Interpolate to Timestep
    07:00,                    !- Time 1
    0,                        !- Value Until Time 1
    18:00,                    !- Time 2
    1,                        !- Value Until Time 2
    24:00,                    !- Time 3
    0;                        !- Value Until Time 3

Schedule:Day:Interval,
    OfficeMedium MinOA_MotorizedDamper_Sched Default,    !- Name
    Fractional,               !- Schedule Type Limits Name
    No,                       !- Interpolate to Timestep
    24:00,                    !- Time 1
    0;                        !- Value Until Time 1

Schedule:Day:Interval,
    OfficeMedium MinOA_MotorizedDamper_Sched Summer Design Day,    !- Name
    Fractional,               !- Schedule Type Limits Name
    No,                       !- Interpolate to Timestep
    07:00,                    !- Time 1
    0,                        !- Value Until Time 1
    22:00,                    !- Time 2
    1,                        !- Value Until Time 2
    24:00,                    !- Time 3
    0;                        !- Value Until Time 3

Schedule:Day:Interval,
    OfficeMedium MinOA_MotorizedDamper_Sched Winter Design Day,    !- Name
    Fractional,               !- Schedule Type Limits Name
    No,                       !- Interpolate to Timestep
    07:00,                    !- Time 1
    0,                        !- Value Until Time 1
    18:00,                    !- Time 2
    1,                        !- Value Until Time 2
    24:00,                    !- Time 3
    0;                        !- Value Until Time 3

Schedule:Day:Interval,
    Air Velocity Schedule Default,    !- Name
    Velocity,                 !- Schedule Type Limits Name
    No,                       !- Interpolate to Timestep
    24:00,                    !- Time 1
    0.2;                      !- Value Until Time 1

Schedule:Day:Interval,
    Clothing Schedule Default Winter Clothes,    !- Name
    Any Number,               !- Schedule Type Limits Name
    No,                       !- Interpolate to Timestep
    24:00,                    !- Time 1
    1;                        !- Value Until Time 1

Schedule:Day:Interval,
    Clothing Schedule Summer Clothes,    !- Name
    Any Number,               !- Schedule Type Limits Name
    No,                       !- Interpolate to Timestep
    24:00,                    !- Time 1
    0.5;                      !- Value Until Time 1

Schedule:Day:Interval,
    Economizer Max OA Fraction 70 pct Default,    !- Name
    ,                         !- Schedule Type Limits Name
    No,                       !- Interpolate to Timestep
    24:00,                    !- Time 1
    0.7;                      !- Value Until Time 1

Schedule:Day:Interval,
    Fraction Latent - 0.05 Default,    !- Name
    Fractional,               !- Schedule Type Limits Name
    No,                       !- Interpolate to Timestep
    24:00,                    !- Time 1
    0.05;                     !- Value Until Time 1

Schedule:Day:Interval,
    Fraction Sensible - 0.2 Default,    !- Name
    Fractional,               !- Schedule Type Limits Name
    No,                       !- Interpolate to Timestep
    24:00,                    !- Time 1
    0.2;                      !- Value Until Time 1

Schedule:Day:Interval,
    Mixed Water At Faucet Temp - 140F Default,    !- Name
    Temperature,              !- Schedule Type Limits Name
    No,                       !- Interpolate to Timestep
    24:00,                    !- Time 1
    60.0000000000001;         !- Value Until Time 1

Schedule:Day:Interval,
    Mixed Water At Faucet Temp - 140F Default 1,    !- Name
    Temperature,              !- Schedule Type Limits Name
    No,                       !- Interpolate to Timestep
    24:00,                    !- Time 1
    60.0000000000001;         !- Value Until Time 1

Schedule:Day:Interval,
    Mixed Water At Faucet Temp - 140F Default 10,    !- Name
    Temperature,              !- Schedule Type Limits Name
    No,                       !- Interpolate to Timestep
    24:00,                    !- Time 1
    60.0000000000001;         !- Value Until Time 1

Schedule:Day:Interval,
    Mixed Water At Faucet Temp - 140F Default 11,    !- Name
    Temperature,              !- Schedule Type Limits Name
    No,                       !- Interpolate to Timestep
    24:00,                    !- Time 1
    60.0000000000001;         !- Value Until Time 1

Schedule:Day:Interval,
    Mixed Water At Faucet Temp - 140F Default 12,    !- Name
    Temperature,              !- Schedule Type Limits Name
    No,                       !- Interpolate to Timestep
    24:00,                    !- Time 1
    60.0000000000001;         !- Value Until Time 1

Schedule:Day:Interval,
    Mixed Water At Faucet Temp - 140F Default 13,    !- Name
    Temperature,              !- Schedule Type Limits Name
    No,                       !- Interpolate to Timestep
    24:00,                    !- Time 1
    60.0000000000001;         !- Value Until Time 1

Schedule:Day:Interval,
    Mixed Water At Faucet Temp - 140F Default 14,    !- Name
    Temperature,              !- Schedule Type Limits Name
    No,                       !- Interpolate to Timestep
    24:00,                    !- Time 1
    60.0000000000001;         !- Value Until Time 1

Schedule:Day:Interval,
    Mixed Water At Faucet Temp - 140F Default 2,    !- Name
    Temperature,              !- Schedule Type Limits Name
    No,                       !- Interpolate to Timestep
    24:00,                    !- Time 1
    60.0000000000001;         !- Value Until Time 1

Schedule:Day:Interval,
    Mixed Water At Faucet Temp - 140F Default 3,    !- Name
    Temperature,              !- Schedule Type Limits Name
    No,                       !- Interpolate to Timestep
    24:00,                    !- Time 1
    60.0000000000001;         !- Value Until Time 1

Schedule:Day:Interval,
    Mixed Water At Faucet Temp - 140F Default 4,    !- Name
    Temperature,              !- Schedule Type Limits Name
    No,                       !- Interpolate to Timestep
    24:00,                    !- Time 1
    60.0000000000001;         !- Value Until Time 1

Schedule:Day:Interval,
    Mixed Water At Faucet Temp - 140F Default 5,    !- Name
    Temperature,              !- Schedule Type Limits Name
    No,                       !- Interpolate to Timestep
    24:00,                    !- Time 1
    60.0000000000001;         !- Value Until Time 1

Schedule:Day:Interval,
    Mixed Water At Faucet Temp - 140F Default 6,    !- Name
    Temperature,              !- Schedule Type Limits Name
    No,                       !- Interpolate to Timestep
    24:00,                    !- Time 1
    60.0000000000001;         !- Value Until Time 1

Schedule:Day:Interval,
    Mixed Water At Faucet Temp - 140F Default 7,    !- Name
    Temperature,              !- Schedule Type Limits Name
    No,                       !- Interpolate to Timestep
    24:00,                    !- Time 1
    60.0000000000001;         !- Value Until Time 1

Schedule:Day:Interval,
    Mixed Water At Faucet Temp - 140F Default 8,    !- Name
    Temperature,              !- Schedule Type Limits Name